<?xml version="1.0" encoding="UTF-8"?>

<!-- generated on Fri Jul 17 13:50:18 2020 by SUMO netgenerate Version 0.32.0
<?xml version="1.0" encoding="UTF-8"?>

<configuration xmlns:xsi="http://www.w3.org/2001/XMLSchema-instance" xsi:noNamespaceSchemaLocation="http://sumo.dlr.de/xsd/netgenerateConfiguration.xsd">

    <grid_network>
        <grid value="true"/>
        <grid.number value="2"/>
        <grid.x-length value="300"/>
        <grid.y-length value="500"/>
    </grid_network>

    <output>
        <output-file value="/home/iotlab/Desktop/canmap.net.xml"/>
    </output>

    <tls_building>
        <tls.guess value="true"/>
    </tls_building>

    <building_defaults>
        <default.lanenumber value="3"/>
    </building_defaults>

</configuration>
-->

<net version="0.27" xmlns:xsi="http://www.w3.org/2001/XMLSchema-instance" xsi:noNamespaceSchemaLocation="http://sumo.dlr.de/xsd/net_file.xsd">

    <location netOffset="0.00,0.00" convBoundary="0.00,0.00,300.00,500.00" origBoundary="0.00,0.00,300.00,500.00" projParameter="!"/>

    <edge id=":0/0_0" function="internal">
        <lane id=":0/0_0_0" index="0" speed="13.90" length="29.19" shape="-8.25,9.85 -7.12,1.93 -3.72,-3.73 1.93,-7.12 9.85,-8.25"/>
    </edge>
    <edge id=":0/0_1" function="internal">
        <lane id=":0/0_1_0" index="0" speed="13.90" length="23.87" shape="-4.95,9.85 -4.02,3.37 -1.25,-1.25 3.38,-4.03 9.85,-4.95"/>
    </edge>
    <edge id=":0/0_2" function="internal">
        <lane id=":0/0_2_0" index="0" speed="13.90" length="18.55" shape="-1.65,9.85 -0.93,4.82 1.23,1.22 4.82,-0.93 9.85,-1.65"/>
    </edge>
    <edge id=":0/0_3" function="internal">
        <lane id=":0/0_3_0" index="0" speed="13.90" length="2.69" shape="-1.65,9.85 -0.83,8.61 0.00,8.20 0.25,8.33"/>
    </edge>
    <edge id=":0/0_8" function="internal">
        <lane id=":0/0_8_0" index="0" speed="13.90" length="2.13" shape="0.25,8.33 0.83,8.61 1.65,9.85"/>
    </edge>
    <edge id=":0/0_4" function="internal">
        <lane id=":0/0_4_0" index="0" speed="13.90" length="2.58" shape="9.85,8.25 9.15,8.35 8.65,8.65 8.35,9.15 8.25,9.85"/>
    </edge>
    <edge id=":0/0_5" function="internal">
        <lane id=":0/0_5_0" index="0" speed="13.90" length="7.90" shape="9.85,4.95 7.71,5.26 6.17,6.17 5.26,7.71 4.95,9.85"/>
    </edge>
    <edge id=":0/0_6" function="internal">
        <lane id=":0/0_6_0" index="0" speed="13.90" length="13.22" shape="9.85,1.65 6.26,2.16 3.70,3.70 2.16,6.26 1.65,9.85"/>
    </edge>
    <edge id=":0/0_7" function="internal">
        <lane id=":0/0_7_0" index="0" speed="13.90" length="2.20" shape="9.85,1.65 8.61,0.83 8.29,0.19"/>
    </edge>
    <edge id=":0/0_9" function="internal">
        <lane id=":0/0_9_0" index="0" speed="13.90" length="2.62" shape="8.29,0.19 8.20,0.00 8.61,-0.83 9.85,-1.65"/>
    </edge>
    <edge id=":0/1_0" function="internal">
        <lane id=":0/1_0_0" index="0" speed="13.90" length="29.19" shape="9.85,508.25 1.93,507.12 -3.72,503.73 -7.12,498.07 -8.25,490.15"/>
    </edge>
    <edge id=":0/1_1" function="internal">
        <lane id=":0/1_1_0" index="0" speed="13.90" length="23.87" shape="9.85,504.95 3.38,504.02 -1.25,501.25 -4.03,496.62 -4.95,490.15"/>
    </edge>
    <edge id=":0/1_2" function="internal">
        <lane id=":0/1_2_0" index="0" speed="13.90" length="18.55" shape="9.85,501.65 4.82,500.93 1.22,498.77 -0.93,495.18 -1.65,490.15"/>
    </edge>
    <edge id=":0/1_3" function="internal">
        <lane id=":0/1_3_0" index="0" speed="13.90" length="2.69" shape="9.85,501.65 8.61,500.82 8.20,500.00 8.33,499.75"/>
    </edge>
    <edge id=":0/1_8" function="internal">
        <lane id=":0/1_8_0" index="0" speed="13.90" length="2.13" shape="8.33,499.75 8.61,499.18 9.85,498.35"/>
    </edge>
    <edge id=":0/1_4" function="internal">
        <lane id=":0/1_4_0" index="0" speed="13.90" length="2.58" shape="8.25,490.15 8.35,490.85 8.65,491.35 9.15,491.65 9.85,491.75"/>
    </edge>
    <edge id=":0/1_5" function="internal">
        <lane id=":0/1_5_0" index="0" speed="13.90" length="7.90" shape="4.95,490.15 5.26,492.29 6.18,493.82 7.71,494.74 9.85,495.05"/>
    </edge>
    <edge id=":0/1_6" function="internal">
        <lane id=":0/1_6_0" index="0" speed="13.90" length="13.22" shape="1.65,490.15 2.16,493.74 3.70,496.30 6.26,497.84 9.85,498.35"/>
    </edge>
    <edge id=":0/1_7" function="internal">
        <lane id=":0/1_7_0" index="0" speed="13.90" length="2.20" shape="1.65,490.15 0.83,491.39 0.19,491.71"/>
    </edge>
    <edge id=":0/1_9" function="internal">
        <lane id=":0/1_9_0" index="0" speed="13.90" length="2.62" shape="0.19,491.71 0.00,491.80 -0.83,491.39 -1.65,490.15"/>
    </edge>
    <edge id=":1/0_0" function="internal">
        <lane id=":1/0_0_0" index="0" speed="13.90" length="2.58" shape="291.75,9.85 291.65,9.15 291.35,8.65 290.85,8.35 290.15,8.25"/>
    </edge>
    <edge id=":1/0_1" function="internal">
        <lane id=":1/0_1_0" index="0" speed="13.90" length="7.90" shape="295.05,9.85 294.74,7.71 293.83,6.17 292.29,5.26 290.15,4.95"/>
    </edge>
    <edge id=":1/0_2" function="internal">
        <lane id=":1/0_2_0" index="0" speed="13.90" length="13.22" shape="298.35,9.85 297.84,6.26 296.30,3.70 293.74,2.16 290.15,1.65"/>
    </edge>
    <edge id=":1/0_3" function="internal">
        <lane id=":1/0_3_0" index="0" speed="13.90" length="2.20" shape="298.35,9.85 299.17,8.61 299.81,8.29"/>
    </edge>
    <edge id=":1/0_8" function="internal">
        <lane id=":1/0_8_0" index="0" speed="13.90" length="2.62" shape="299.81,8.29 300.00,8.20 300.82,8.61 301.65,9.85"/>
    </edge>
    <edge id=":1/0_4" function="internal">
        <lane id=":1/0_4_0" index="0" speed="13.90" length="29.19" shape="290.15,-8.25 298.07,-7.12 303.73,-3.73 307.12,1.93 308.25,9.85"/>
    </edge>
    <edge id=":1/0_5" function="internal">
        <lane id=":1/0_5_0" index="0" speed="13.90" length="23.87" shape="290.15,-4.95 296.62,-4.03 301.25,-1.25 304.02,3.37 304.95,9.85"/>
    </edge>
    <edge id=":1/0_6" function="internal">
        <lane id=":1/0_6_0" index="0" speed="13.90" length="18.55" shape="290.15,-1.65 295.18,-0.93 298.77,1.22 300.93,4.82 301.65,9.85"/>
    </edge>
    <edge id=":1/0_7" function="internal">
        <lane id=":1/0_7_0" index="0" speed="13.90" length="2.69" shape="290.15,-1.65 291.39,-0.83 291.80,0.00 291.67,0.25"/>
    </edge>
    <edge id=":1/0_9" function="internal">
        <lane id=":1/0_9_0" index="0" speed="13.90" length="2.13" shape="291.67,0.25 291.39,0.83 290.15,1.65"/>
    </edge>
    <edge id=":1/1_0" function="internal">
        <lane id=":1/1_0_0" index="0" speed="13.90" length="29.19" shape="308.25,490.15 307.12,498.07 303.73,503.73 298.07,507.12 290.15,508.25"/>
    </edge>
    <edge id=":1/1_1" function="internal">
        <lane id=":1/1_1_0" index="0" speed="13.90" length="23.87" shape="304.95,490.15 304.02,496.62 301.25,501.25 296.62,504.02 290.15,504.95"/>
    </edge>
    <edge id=":1/1_2" function="internal">
        <lane id=":1/1_2_0" index="0" speed="13.90" length="18.55" shape="301.65,490.15 300.93,495.18 298.77,498.77 295.18,500.93 290.15,501.65"/>
    </edge>
    <edge id=":1/1_3" function="internal">
        <lane id=":1/1_3_0" index="0" speed="13.90" length="2.69" shape="301.65,490.15 300.83,491.39 300.00,491.80 299.75,491.67"/>
    </edge>
    <edge id=":1/1_8" function="internal">
        <lane id=":1/1_8_0" index="0" speed="13.90" length="2.13" shape="299.75,491.67 299.18,491.39 298.35,490.15"/>
    </edge>
    <edge id=":1/1_4" function="internal">
        <lane id=":1/1_4_0" index="0" speed="13.90" length="2.58" shape="290.15,491.75 290.85,491.65 291.35,491.35 291.65,490.85 291.75,490.15"/>
    </edge>
    <edge id=":1/1_5" function="internal">
        <lane id=":1/1_5_0" index="0" speed="13.90" length="7.90" shape="290.15,495.05 292.29,494.74 293.82,493.83 294.74,492.29 295.05,490.15"/>
    </edge>
    <edge id=":1/1_6" function="internal">
        <lane id=":1/1_6_0" index="0" speed="13.90" length="13.22" shape="290.15,498.35 293.74,497.84 296.30,496.30 297.84,493.74 298.35,490.15"/>
    </edge>
    <edge id=":1/1_7" function="internal">
        <lane id=":1/1_7_0" index="0" speed="13.90" length="2.20" shape="290.15,498.35 291.39,499.18 291.71,499.81"/>
    </edge>
    <edge id=":1/1_9" function="internal">
        <lane id=":1/1_9_0" index="0" speed="13.90" length="2.62" shape="291.71,499.81 291.80,500.00 291.39,500.82 290.15,501.65"/>
    </edge>

    <edge id="0/0to0/1" from="0/0" to="0/1" priority="-1">
        <lane id="0/0to0/1_0" index="0" speed="13.90" length="480.30" shape="8.25,9.85 8.25,490.15"/>
        <lane id="0/0to0/1_1" index="1" speed="13.90" length="480.30" shape="4.95,9.85 4.95,490.15"/>
        <lane id="0/0to0/1_2" index="2" speed="13.90" length="480.30" shape="1.65,9.85 1.65,490.15"/>
    </edge>
    <edge id="0/0to1/0" from="0/0" to="1/0" priority="-1">
        <lane id="0/0to1/0_0" index="0" speed="13.90" length="280.30" shape="9.85,-8.25 290.15,-8.25"/>
        <lane id="0/0to1/0_1" index="1" speed="13.90" length="280.30" shape="9.85,-4.95 290.15,-4.95"/>
        <lane id="0/0to1/0_2" index="2" speed="13.90" length="280.30" shape="9.85,-1.65 290.15,-1.65"/>
    </edge>
    <edge id="0/1to0/0" from="0/1" to="0/0" priority="-1">
        <lane id="0/1to0/0_0" index="0" speed="13.90" length="480.30" shape="-8.25,490.15 -8.25,9.85"/>
        <lane id="0/1to0/0_1" index="1" speed="13.90" length="480.30" shape="-4.95,490.15 -4.95,9.85"/>
        <lane id="0/1to0/0_2" index="2" speed="13.90" length="480.30" shape="-1.65,490.15 -1.65,9.85"/>
    </edge>
    <edge id="0/1to1/1" from="0/1" to="1/1" priority="-1">
        <lane id="0/1to1/1_0" index="0" speed="13.90" length="280.30" shape="9.85,491.75 290.15,491.75"/>
        <lane id="0/1to1/1_1" index="1" speed="13.90" length="280.30" shape="9.85,495.05 290.15,495.05"/>
        <lane id="0/1to1/1_2" index="2" speed="13.90" length="280.30" shape="9.85,498.35 290.15,498.35"/>
    </edge>
    <edge id="1/0to0/0" from="1/0" to="0/0" priority="-1">
        <lane id="1/0to0/0_0" index="0" speed="13.90" length="280.30" shape="290.15,8.25 9.85,8.25"/>
        <lane id="1/0to0/0_1" index="1" speed="13.90" length="280.30" shape="290.15,4.95 9.85,4.95"/>
        <lane id="1/0to0/0_2" index="2" speed="13.90" length="280.30" shape="290.15,1.65 9.85,1.65"/>
    </edge>
    <edge id="1/0to1/1" from="1/0" to="1/1" priority="-1">
        <lane id="1/0to1/1_0" index="0" speed="13.90" length="480.30" shape="308.25,9.85 308.25,490.15"/>
        <lane id="1/0to1/1_1" index="1" speed="13.90" length="480.30" shape="304.95,9.85 304.95,490.15"/>
        <lane id="1/0to1/1_2" index="2" speed="13.90" length="480.30" shape="301.65,9.85 301.65,490.15"/>
    </edge>
    <edge id="1/1to0/1" from="1/1" to="0/1" priority="-1">
        <lane id="1/1to0/1_0" index="0" speed="13.90" length="280.30" shape="290.15,508.25 9.85,508.25"/>
        <lane id="1/1to0/1_1" index="1" speed="13.90" length="280.30" shape="290.15,504.95 9.85,504.95"/>
        <lane id="1/1to0/1_2" index="2" speed="13.90" length="280.30" shape="290.15,501.65 9.85,501.65"/>
    </edge>
    <edge id="1/1to1/0" from="1/1" to="1/0" priority="-1">
        <lane id="1/1to1/0_0" index="0" speed="13.90" length="480.30" shape="291.75,490.15 291.75,9.85"/>
        <lane id="1/1to1/0_1" index="1" speed="13.90" length="480.30" shape="295.05,490.15 295.05,9.85"/>
        <lane id="1/1to1/0_2" index="2" speed="13.90" length="480.30" shape="298.35,490.15 298.35,9.85"/>
    </edge>

    <junction id="0/0" type="priority" x="0.00" y="0.00" incLanes="0/1to0/0_0 0/1to0/0_1 0/1to0/0_2 1/0to0/0_0 1/0to0/0_1 1/0to0/0_2" intLanes=":0/0_0_0 :0/0_1_0 :0/0_2_0 :0/0_8_0 :0/0_4_0 :0/0_5_0 :0/0_6_0 :0/0_9_0" shape="-9.85,9.85 9.85,9.85 9.85,-9.85">
        <request index="0" response="00000000" foes="10000000" cont="0"/>
        <request index="1" response="00000000" foes="10000000" cont="0"/>
        <request index="2" response="00000000" foes="10000000" cont="0"/>
        <request index="3" response="01110000" foes="01110000" cont="1"/>
        <request index="4" response="00000000" foes="00001000" cont="0"/>
        <request index="5" response="00000000" foes="00001000" cont="0"/>
        <request index="6" response="00000000" foes="00001000" cont="0"/>
        <request index="7" response="00000111" foes="00000111" cont="1"/>
    </junction>
    <junction id="0/1" type="priority" x="0.00" y="500.00" incLanes="1/1to0/1_0 1/1to0/1_1 1/1to0/1_2 0/0to0/1_0 0/0to0/1_1 0/0to0/1_2" intLanes=":0/1_0_0 :0/1_1_0 :0/1_2_0 :0/1_8_0 :0/1_4_0 :0/1_5_0 :0/1_6_0 :0/1_9_0" shape="9.85,509.85 9.85,490.15 -9.85,490.15">
        <request index="0" response="00000000" foes="10000000" cont="0"/>
        <request index="1" response="00000000" foes="10000000" cont="0"/>
        <request index="2" response="00000000" foes="10000000" cont="0"/>
        <request index="3" response="01110000" foes="01110000" cont="1"/>
        <request index="4" response="00000000" foes="00001000" cont="0"/>
        <request index="5" response="00000000" foes="00001000" cont="0"/>
        <request index="6" response="00000000" foes="00001000" cont="0"/>
        <request index="7" response="00000111" foes="00000111" cont="1"/>
    </junction>
    <junction id="1/0" type="priority" x="300.00" y="0.00" incLanes="1/1to1/0_0 1/1to1/0_1 1/1to1/0_2 0/0to1/0_0 0/0to1/0_1 0/0to1/0_2" intLanes=":1/0_0_0 :1/0_1_0 :1/0_2_0 :1/0_8_0 :1/0_4_0 :1/0_5_0 :1/0_6_0 :1/0_9_0" shape="290.15,9.85 309.85,9.85 290.15,-9.85">
        <request index="0" response="00000000" foes="10000000" cont="0"/>
        <request index="1" response="00000000" foes="10000000" cont="0"/>
        <request index="2" response="00000000" foes="10000000" cont="0"/>
        <request index="3" response="01110000" foes="01110000" cont="1"/>
        <request index="4" response="00000000" foes="00001000" cont="0"/>
        <request index="5" response="00000000" foes="00001000" cont="0"/>
        <request index="6" response="00000000" foes="00001000" cont="0"/>
        <request index="7" response="00000111" foes="00000111" cont="1"/>
    </junction>
    <junction id="1/1" type="priority" x="300.00" y="500.00" incLanes="1/0to1/1_0 1/0to1/1_1 1/0to1/1_2 0/1to1/1_0 0/1to1/1_1 0/1to1/1_2" intLanes=":1/1_0_0 :1/1_1_0 :1/1_2_0 :1/1_8_0 :1/1_4_0 :1/1_5_0 :1/1_6_0 :1/1_9_0" shape="309.85,490.15 290.15,490.15 290.15,509.85">
        <request index="0" response="00000000" foes="10000000" cont="0"/>
        <request index="1" response="00000000" foes="10000000" cont="0"/>
        <request index="2" response="00000000" foes="10000000" cont="0"/>
        <request index="3" response="01110000" foes="01110000" cont="1"/>
        <request index="4" response="00000000" foes="00001000" cont="0"/>
        <request index="5" response="00000000" foes="00001000" cont="0"/>
        <request index="6" response="00000000" foes="00001000" cont="0"/>
        <request index="7" response="00000111" foes="00000111" cont="1"/>
    </junction>

    <junction id=":0/0_8_0" type="internal" x="0.25" y="8.33" incLanes=":0/0_3_0 1/0to0/0_0 1/0to0/0_1 1/0to0/0_2" intLanes=":0/0_4_0 :0/0_5_0 :0/0_6_0"/>
    <junction id=":0/0_9_0" type="internal" x="8.29" y="0.19" incLanes=":0/0_7_0 0/1to0/0_0 0/1to0/0_1 0/1to0/0_2" intLanes=":0/0_0_0 :0/0_1_0 :0/0_2_0"/>
    <junction id=":0/1_8_0" type="internal" x="8.33" y="499.75" incLanes=":0/1_3_0 0/0to0/1_0 0/0to0/1_1 0/0to0/1_2" intLanes=":0/1_4_0 :0/1_5_0 :0/1_6_0"/>
    <junction id=":0/1_9_0" type="internal" x="0.19" y="491.71" incLanes=":0/1_7_0 1/1to0/1_0 1/1to0/1_1 1/1to0/1_2" intLanes=":0/1_0_0 :0/1_1_0 :0/1_2_0"/>
    <junction id=":1/0_8_0" type="internal" x="299.81" y="8.29" incLanes=":1/0_3_0 0/0to1/0_0 0/0to1/0_1 0/0to1/0_2" intLanes=":1/0_4_0 :1/0_5_0 :1/0_6_0"/>
    <junction id=":1/0_9_0" type="internal" x="291.67" y="0.25" incLanes=":1/0_7_0 1/1to1/0_0 1/1to1/0_1 1/1to1/0_2" intLanes=":1/0_0_0 :1/0_1_0 :1/0_2_0"/>
    <junction id=":1/1_8_0" type="internal" x="299.75" y="491.67" incLanes=":1/1_3_0 0/1to1/1_0 0/1to1/1_1 0/1to1/1_2" intLanes=":1/1_4_0 :1/1_5_0 :1/1_6_0"/>
    <junction id=":1/1_9_0" type="internal" x="291.71" y="499.81" incLanes=":1/1_7_0 1/0to1/1_0 1/0to1/1_1 1/0to1/1_2" intLanes=":1/1_0_0 :1/1_1_0 :1/1_2_0"/>

    <connection from="0/0to0/1" to="0/1to1/1" fromLane="0" toLane="0" via=":0/1_4_0" dir="r" state="M"/>
    <connection from="0/0to0/1" to="0/1to1/1" fromLane="1" toLane="1" via=":0/1_5_0" dir="r" state="M"/>
    <connection from="0/0to0/1" to="0/1to1/1" fromLane="2" toLane="2" via=":0/1_6_0" dir="r" state="M"/>
    <connection from="0/0to0/1" to="0/1to0/0" fromLane="2" toLane="2" via=":0/1_7_0" dir="t" state="m"/>
    <connection from="0/0to1/0" to="1/0to1/1" fromLane="0" toLane="0" via=":1/0_4_0" dir="l" state="M"/>
    <connection from="0/0to1/0" to="1/0to1/1" fromLane="1" toLane="1" via=":1/0_5_0" dir="l" state="M"/>
    <connection from="0/0to1/0" to="1/0to1/1" fromLane="2" toLane="2" via=":1/0_6_0" dir="l" state="M"/>
    <connection from="0/0to1/0" to="1/0to0/0" fromLane="2" toLane="2" via=":1/0_7_0" dir="t" state="m"/>
    <connection from="0/1to0/0" to="0/0to1/0" fromLane="0" toLane="0" via=":0/0_0_0" dir="l" state="M"/>
    <connection from="0/1to0/0" to="0/0to1/0" fromLane="1" toLane="1" via=":0/0_1_0" dir="l" state="M"/>
    <connection from="0/1to0/0" to="0/0to1/0" fromLane="2" toLane="2" via=":0/0_2_0" dir="l" state="M"/>
    <connection from="0/1to0/0" to="0/0to0/1" fromLane="2" toLane="2" via=":0/0_3_0" dir="t" state="m"/>
    <connection from="0/1to1/1" to="1/1to1/0" fromLane="0" toLane="0" via=":1/1_4_0" dir="r" state="M"/>
    <connection from="0/1to1/1" to="1/1to1/0" fromLane="1" toLane="1" via=":1/1_5_0" dir="r" state="M"/>
    <connection from="0/1to1/1" to="1/1to1/0" fromLane="2" toLane="2" via=":1/1_6_0" dir="r" state="M"/>
    <connection from="0/1to1/1" to="1/1to0/1" fromLane="2" toLane="2" via=":1/1_7_0" dir="t" state="m"/>
    <connection from="1/0to0/0" to="0/0to0/1" fromLane="0" toLane="0" via=":0/0_4_0" dir="r" state="M"/>
    <connection from="1/0to0/0" to="0/0to0/1" fromLane="1" toLane="1" via=":0/0_5_0" dir="r" state="M"/>
    <connection from="1/0to0/0" to="0/0to0/1" fromLane="2" toLane="2" via=":0/0_6_0" dir="r" state="M"/>
    <connection from="1/0to0/0" to="0/0to1/0" fromLane="2" toLane="2" via=":0/0_7_0" dir="t" state="m"/>
    <connection from="1/0to1/1" to="1/1to0/1" fromLane="0" toLane="0" via=":1/1_0_0" dir="l" state="M"/>
    <connection from="1/0to1/1" to="1/1to0/1" fromLane="1" toLane="1" via=":1/1_1_0" dir="l" state="M"/>
    <connection from="1/0to1/1" to="1/1to0/1" fromLane="2" toLane="2" via=":1/1_2_0" dir="l" state="M"/>
    <connection from="1/0to1/1" to="1/1to1/0" fromLane="2" toLane="2" via=":1/1_3_0" dir="t" state="m"/>
    <connection from="1/1to0/1" to="0/1to0/0" fromLane="0" toLane="0" via=":0/1_0_0" dir="l" state="M"/>
    <connection from="1/1to0/1" to="0/1to0/0" fromLane="1" toLane="1" via=":0/1_1_0" dir="l" state="M"/>
    <connection from="1/1to0/1" to="0/1to0/0" fromLane="2" toLane="2" via=":0/1_2_0" dir="l" state="M"/>
    <connection from="1/1to0/1" to="0/1to1/1" fromLane="2" toLane="2" via=":0/1_3_0" dir="t" state="m"/>
    <connection from="1/1to1/0" to="1/0to0/0" fromLane="0" toLane="0" via=":1/0_0_0" dir="r" state="M"/>
    <connection from="1/1to1/0" to="1/0to0/0" fromLane="1" toLane="1" via=":1/0_1_0" dir="r" state="M"/>
    <connection from="1/1to1/0" to="1/0to0/0" fromLane="2" toLane="2" via=":1/0_2_0" dir="r" state="M"/>
    <connection from="1/1to1/0" to="1/0to1/1" fromLane="2" toLane="2" via=":1/0_3_0" dir="t" state="m"/>

    <connection from=":0/0_0" to="0/0to1/0" fromLane="0" toLane="0" dir="l" state="M"/>
    <connection from=":0/0_1" to="0/0to1/0" fromLane="0" toLane="1" dir="l" state="M"/>
    <connection from=":0/0_2" to="0/0to1/0" fromLane="0" toLane="2" dir="l" state="M"/>
    <connection from=":0/0_3" to="0/0to0/1" fromLane="0" toLane="2" via=":0/0_8_0" dir="t" state="m"/>
    <connection from=":0/0_8" to="0/0to0/1" fromLane="0" toLane="2" dir="t" state="M"/>
    <connection from=":0/0_4" to="0/0to0/1" fromLane="0" toLane="0" dir="r" state="M"/>
    <connection from=":0/0_5" to="0/0to0/1" fromLane="0" toLane="1" dir="r" state="M"/>
    <connection from=":0/0_6" to="0/0to0/1" fromLane="0" toLane="2" dir="r" state="M"/>
    <connection from=":0/0_7" to="0/0to1/0" fromLane="0" toLane="2" via=":0/0_9_0" dir="t" state="m"/>
    <connection from=":0/0_9" to="0/0to1/0" fromLane="0" toLane="2" dir="t" state="M"/>
    <connection from=":0/1_0" to="0/1to0/0" fromLane="0" toLane="0" dir="l" state="M"/>
    <connection from=":0/1_1" to="0/1to0/0" fromLane="0" toLane="1" dir="l" state="M"/>
    <connection from=":0/1_2" to="0/1to0/0" fromLane="0" toLane="2" dir="l" state="M"/>
    <connection from=":0/1_3" to="0/1to1/1" fromLane="0" toLane="2" via=":0/1_8_0" dir="t" state="m"/>
    <connection from=":0/1_8" to="0/1to1/1" fromLane="0" toLane="2" dir="t" state="M"/>
    <connection from=":0/1_4" to="0/1to1/1" fromLane="0" toLane="0" dir="r" state="M"/>
    <connection from=":0/1_5" to="0/1to1/1" fromLane="0" toLane="1" dir="r" state="M"/>
    <connection from=":0/1_6" to="0/1to1/1" fromLane="0" toLane="2" dir="r" state="M"/>
    <connection from=":0/1_7" to="0/1to0/0" fromLane="0" toLane="2" via=":0/1_9_0" dir="t" state="m"/>
    <connection from=":0/1_9" to="0/1to0/0" fromLane="0" toLane="2" dir="t" state="M"/>
    <connection from=":1/0_0" to="1/0to0/0" fromLane="0" toLane="0" dir="r" state="M"/>
    <connection from=":1/0_1" to="1/0to0/0" fromLane="0" toLane="1" dir="r" state="M"/>
    <connection from=":1/0_2" to="1/0to0/0" fromLane="0" toLane="2" dir="r" state="M"/>
    <connection from=":1/0_3" to="1/0to1/1" fromLane="0" toLane="2" via=":1/0_8_0" dir="t" state="m"/>
    <connection from=":1/0_8" to="1/0to1/1" fromLane="0" toLane="2" dir="t" state="M"/>
    <connection from=":1/0_4" to="1/0to1/1" fromLane="0" toLane="0" dir="l" state="M"/>
    <connection from=":1/0_5" to="1/0to1/1" fromLane="0" toLane="1" dir="l" state="M"/>
    <connection from=":1/0_6" to="1/0to1/1" fromLane="0" toLane="2" dir="l" state="M"/>
    <connection from=":1/0_7" to="1/0to0/0" fromLane="0" toLane="2" via=":1/0_9_0" dir="t" state="m"/>
    <connection from=":1/0_9" to="1/0to0/0" fromLane="0" toLane="2" dir="t" state="M"/>
    <connection from=":1/1_0" to="1/1to0/1" fromLane="0" toLane="0" dir="l" state="M"/>
    <connection from=":1/1_1" to="1/1to0/1" fromLane="0" toLane="1" dir="l" state="M"/>
    <connection from=":1/1_2" to="1/1to0/1" fromLane="0" toLane="2" dir="l" state="M"/>
    <connection from=":1/1_3" to="1/1to1/0" fromLane="0" toLane="2" via=":1/1_8_0" dir="t" state="m"/>
    <connection from=":1/1_8" to="1/1to1/0" fromLane="0" toLane="2" dir="t" state="M"/>
    <connection from=":1/1_4" to="1/1to1/0" fromLane="0" toLane="0" dir="r" state="M"/>
    <connection from=":1/1_5" to="1/1to1/0" fromLane="0" toLane="1" dir="r" state="M"/>
    <connection from=":1/1_6" to="1/1to1/0" fromLane="0" toLane="2" dir="r" state="M"/>
    <connection from=":1/1_7" to="1/1to0/1" fromLane="0" toLane="2" via=":1/1_9_0" dir="t" state="m"/>
    <connection from=":1/1_9" to="1/1to0/1" fromLane="0" toLane="2" dir="t" state="M"/>

</net>
